Circuit: * C:\Users\Caliphax\Documents\ltspice\10W IRF510 Amp 7 MHz - Impedance.asc

Direct Newton iteration for .op point succeeded.

Date: Mon Jul 26 12:30:21 2021
Total elapsed time: 0.170 seconds.

tnom = 27
temp = 27
method = trap
totiter = 9
traniter = 0
tranpoints = 0
accept = 0
rejected = 0
matrix size = 31
fillins = 4
solver = Normal
Matrix Compiler1:     103 opcodes
Matrix Compiler2: 2.30 KB object code size
