Circuit: * C:\Users\Caliphax\Documents\ltspice\10W IRF510 Amp - Impedance.asc

WARNING: Node N007 is floating.

WARNING: Less than two connections to node N007.  This node is used by C16.
Direct Newton iteration for .op point succeeded.

Date: Fri Aug  6 09:20:29 2021
Total elapsed time: 0.383 seconds.

tnom = 27
temp = 27
method = trap
totiter = 10
traniter = 0
tranpoints = 0
accept = 0
rejected = 0
matrix size = 116
fillins = 29
solver = Normal
Matrix Compiler1:     417 opcodes
Matrix Compiler2: 8.95 KB object code size
