Circuit: * C:\Users\Caliphax\Documents\ltspice\10W IRF510 Amp.asc

Direct Newton iteration for .op point succeeded.

Date: Tue Jul 13 11:58:41 2021
Total elapsed time: 2.540 seconds.

tnom = 27
temp = 27
method = modified trap
totiter = 486709
traniter = 486700
tranpoints = 121914
accept = 84317
rejected = 37597
matrix size = 47
fillins = 18
solver = Normal
Matrix Compiler1: 3.01 KB object code size  1.4/0.4/[0.3]
Matrix Compiler2: 3.62 KB object code size  0.3/0.5/[0.3]

