Circuit: * C:\Users\Caliphax\Documents\ltspice\2n3904 amp.asc

Direct Newton iteration for .op point succeeded.

Date: Sat Oct  3 15:08:28 2020
Total elapsed time: 0.109 seconds.

tnom = 27
temp = 27
method = modified trap
totiter = 2169
traniter = 2165
tranpoints = 1058
accept = 1054
rejected = 4
matrix size = 15
fillins = 1
solver = Normal
Matrix Compiler1: 846 bytes object code size  0.4/0.1/[0.1]
Matrix Compiler2: 1.11 KB object code size  0.1/0.2/[0.1]

