Circuit: * C:\Users\Caliphax\Documents\ltspice\2sc5706.asc

WARNING: Node NC_03 is floating.

WARNING: Less than two connections to node NC_01.  This node is used by Q1.
WARNING: Less than two connections to node NC_02.  This node is used by Q1.
WARNING: Less than two connections to node NC_03.  This node is used by Q1.
Direct Newton iteration failed to find .op point.  (Use ".option noopiter" to skip.)
Starting Gmin stepping
Gmin = 10
Gmin = 1.07374
Gmin = 0.115292
Gmin = 0.0123794
Gmin = 0.00132923
Gmin = 0.000142725
Gmin = 1.5325e-05
Gmin = 1.6455e-06
Gmin = 1.76685e-07
Gmin = 1.89714e-08
Gmin = 2.03704e-09
Gmin = 2.18725e-10
Gmin = 2.34854e-11
Gmin = 2.52173e-12
Gmin = 2.70769e-13
Gmin = 0
Gmin stepping succeeded in finding the operating point.


Date: Mon Oct  5 11:58:47 2020
Total elapsed time: 0.199 seconds.

tnom = 27
temp = 27
method = modified trap
totiter = 2470
traniter = 2085
tranpoints = 1042
accept = 1042
rejected = 0
matrix size = 21
fillins = 2
solver = Normal
Matrix Compiler1: 1.40 KB object code size  0.5/0.3/[0.1]
Matrix Compiler2: 1.69 KB object code size  0.2/0.3/[0.1]

