Circuit: * C:\Users\Caliphax\Documents\ltspice\Amp One Stage.asc

WARNING: Node N008 is floating.

WARNING: Less than two connections to node N005.  This node is used by Q1.
WARNING: Less than two connections to node NC_01.  This node is used by S1.
Instance "m:m3:2": Length shorter than recommended for a level 1 MOSFET.
Instance "m:m2:2": Length shorter than recommended for a level 1 MOSFET.
Direct Newton iteration for .op point succeeded.

Date: Tue Jul 20 16:56:51 2021
Total elapsed time: 6.009 seconds.

tnom = 27
temp = 27
method = modified trap
totiter = 466326
traniter = 466305
tranpoints = 169562
accept = 120601
rejected = 48961
matrix size = 72
fillins = 33
solver = Normal
Matrix Compiler1: 7.12 KB object code size  1.7/0.9/[0.6]
Matrix Compiler2: 6.75 KB object code size  0.6/0.9/[0.5]

