Circuit: * C:\Users\Caliphax\Documents\ltspice\Amp V3.asc

Instance "m:m3:2": Length shorter than recommended for a level 1 MOSFET.
Instance "m:m2:2": Length shorter than recommended for a level 1 MOSFET.
Direct Newton iteration for .op point succeeded.

Date: Sun Oct 11 11:00:11 2020
Total elapsed time: 5.481 seconds.

tnom = 27
temp = 27
method = modified trap
totiter = 665225
traniter = 665213
tranpoints = 275441
accept = 185997
rejected = 89444
matrix size = 43
fillins = 38
solver = Normal
Matrix Compiler1: 6.12 KB object code size  1.5/0.7/[0.4]
Matrix Compiler2: 4.69 KB object code size  0.4/0.6/[0.3]

