Circuit: * C:\Users\Caliphax\Documents\ltspice\bandpass.asc


Date: Tue Mar 21 08:37:30 2023
Total elapsed time: 0.051 seconds.

tnom = 27
temp = 27
method = trap
totiter = 0
traniter = 0
tranpoints = 0
accept = 0
rejected = 0
matrix size = 126
fillins = 9
solver = Normal

