Circuit: * Z:\home\xenir\ltspice\bandpass.asc


Date: Tue Dec 13 10:09:14 2022
Total elapsed time: 0.138 seconds.

tnom = 27
temp = 27
method = trap
totiter = 0
traniter = 0
tranpoints = 0
accept = 0
rejected = 0
matrix size = 92
fillins = 14
solver = Normal

