Circuit: * Z:\home\xenir\ltspice\bandpass.asc


Date: Fri Dec 23 13:08:24 2022
Total elapsed time: 0.203 seconds.

tnom = 27
temp = 27
method = trap
totiter = 0
traniter = 0
tranpoints = 0
accept = 0
rejected = 0
matrix size = 126
fillins = 13
solver = Normal

