Circuit: * Z:\home\xenir\ltspice\bandpass.asc


Date: Sat Dec 24 11:50:26 2022
Total elapsed time: 0.199 seconds.

tnom = 27
temp = 27
method = trap
totiter = 0
traniter = 0
tranpoints = 0
accept = 0
rejected = 0
matrix size = 126
fillins = 13
solver = Normal

