Circuit: * Z:\home\xenir\ltspice\bandpass.asc


Date: Mon Mar 20 20:05:09 2023
Total elapsed time: 0.120 seconds.

tnom = 27
temp = 27
method = trap
totiter = 0
traniter = 0
tranpoints = 0
accept = 0
rejected = 0
matrix size = 134
fillins = 9
solver = Normal

