Circuit: * Z:\home\xenir\ltspice\bandpass.asc


Date: Tue Dec 20 08:40:32 2022
Total elapsed time: 0.127 seconds.

tnom = 27
temp = 27
method = trap
totiter = 0
traniter = 0
tranpoints = 0
accept = 0
rejected = 0
matrix size = 106
fillins = 13
solver = Normal

