Circuit: * C:\Users\Caliphax\Documents\ltspice\bandpass.asc

WARNING: Node P002 is floating.
WARNING: Node P003 is floating.


Date: Tue Mar 21 15:17:14 2023
Total elapsed time: 0.060 seconds.

tnom = 27
temp = 27
method = trap
totiter = 0
traniter = 0
tranpoints = 0
accept = 0
rejected = 0
matrix size = 141
fillins = 9
solver = Normal

