Circuit: * Z:\home\xenir\git\ltspice\bandpass.asc


Date: Sun Dec 25 13:13:16 2022
Total elapsed time: 0.187 seconds.

tnom = 27
temp = 27
method = trap
totiter = 0
traniter = 0
tranpoints = 0
accept = 0
rejected = 0
matrix size = 126
fillins = 13
solver = Normal

