Circuit: * C:\Users\Caliphax\Documents\ltspice\BS170 PMOS Power Switch.asc

Instance "m:m2:2": Length shorter than recommended for a level 1 MOSFET.
Direct Newton iteration for .op point succeeded.

Date: Fri Jul 16 08:16:31 2021
Total elapsed time: 0.090 seconds.

tnom = 27
temp = 27
method = modified trap
totiter = 8586
traniter = 8570
tranpoints = 3190
accept = 2681
rejected = 509
matrix size = 17
fillins = 2
solver = Normal
Matrix Compiler1: 1.22 KB object code size  0.3/0.2/[0.2]
Matrix Compiler2: off  [0.1]/0.2/0.2

