Circuit: * Z:\home\xenir\ltspice\bs170 push pull.asc

Instance "m:m2:2": Length shorter than recommended for a level 1 MOSFET.
Instance "m:m1:2": Length shorter than recommended for a level 1 MOSFET.
Direct Newton iteration for .op point succeeded.

Date: Wed Dec 14 21:47:33 2022
Total elapsed time: 0.176 seconds.

tnom = 27
temp = 27
method = trap
totiter = 10
traniter = 0
tranpoints = 0
accept = 0
rejected = 0
matrix size = 59
fillins = 66
solver = Normal
Matrix Compiler1:     460 opcodes
Matrix Compiler2: 6.35 KB object code size
