Circuit: * Z:\home\xenir\ltspice\bs170 push pull.asc

Instance "m:m2:2": Length shorter than recommended for a level 1 MOSFET.
Instance "m:m1:2": Length shorter than recommended for a level 1 MOSFET.
Direct Newton iteration for .op point succeeded.

Date: Wed Dec 14 22:17:51 2022
Total elapsed time: 1.035 seconds.

tnom = 27
temp = 27
method = modified trap
totiter = 189291
traniter = 189281
tranpoints = 52961
accept = 40213
rejected = 12748
matrix size = 59
fillins = 68
solver = Normal
Matrix Compiler1: 8.76 KB object code size  3.1/0.7/[0.4]
Matrix Compiler2: 6.56 KB object code size  1.2/0.6/[0.3]

