Circuit: * Z:\home\xenir\ltspice\Carrier Balance.asc

Error on line 10 : r8 n010 0 50000- 100 
	 Unknown parameter "-"
Direct Newton iteration for .op point succeeded.
.step left=100
.step left=10100
.step left=20100
.step left=30100
.step left=40100
.step left=50000

Date: Thu Jan 27 19:48:09 2022
Total elapsed time: 0.247 seconds.

tnom = 27
temp = 27
method = modified trap
totiter = 2091
traniter = 2088
tranpoints = 1045
accept = 1045
rejected = 0
matrix size = 14
fillins = 0
solver = Normal
Matrix Compiler1: 510 bytes object code size  0.1/0.1/[0.1]
Matrix Compiler2: 930 bytes object code size  0.1/0.1/[0.1]

