Circuit: * C:\Users\Caliphax\Documents\ltspice\Collector Feedback.asc

Direct Newton iteration for .op point succeeded.

Date: Sun Oct  4 12:41:53 2020
Total elapsed time: 0.093 seconds.

tnom = 27
temp = 27
method = modified trap
totiter = 2098
traniter = 2093
tranpoints = 1042
accept = 1042
rejected = 0
matrix size = 25
fillins = 2
solver = Normal
Matrix Compiler1: 1.48 KB object code size  0.6/0.3/[0.2]
Matrix Compiler2: 1.90 KB object code size  0.3/0.5/[0.2]

