Circuit: * C:\Users\Caliphax\Documents\ltspice\Combiner.asc

WARNING: Node NC_01 is floating.

WARNING: Less than two connections to node NC_01.  This node is used by C1.
Direct Newton iteration for .op point succeeded.

Date: Mon Sep 13 12:51:47 2021
Total elapsed time: 0.125 seconds.

tnom = 27
temp = 27
method = modified trap
totiter = 2723
traniter = 2720
tranpoints = 1361
accept = 1198
rejected = 163
matrix size = 56
fillins = 10
solver = Normal
Thread vector: 2.5/1.9[2] 2.2/1.7[2] 0.2/0.5[1] 0.2/0.7[1]  2592/500
Matrix Compiler1: 3.30 KB object code size  1.4/0.5/[0.4]
Matrix Compiler2: 4.14 KB object code size  0.3/0.5/[0.2]

