Circuit: * C:\Users\Caliphax\Documents\ltspice\Combiner.asc

WARNING: Node NC_01 is floating.

WARNING: Less than two connections to node NC_01.  This node is used by C1.

Date: Wed Sep  8 13:14:54 2021
Total elapsed time: 0.037 seconds.

tnom = 27
temp = 27
method = trap
totiter = 0
traniter = 0
tranpoints = 0
accept = 0
rejected = 0
matrix size = 51
fillins = 0
solver = Normal

