Circuit: * C:\Users\Caliphax\Documents\ltspice\Draft1.asc

.OP point found by inspection.

Date: Tue Jan 11 11:09:59 2022
Total elapsed time: 0.039 seconds.

tnom = 27
temp = 27
method = modified trap
totiter = 6527
traniter = 6527
tranpoints = 2519
accept = 1919
rejected = 600
matrix size = 4
fillins = 0
solver = Normal
Matrix Compiler1: 100 bytes object code size  0.1/0.0/[0.0]
Matrix Compiler2: off  [0.0]/0.1/0.0

