Circuit: * C:\Users\Caliphax\Documents\ltspice\Draft1.asc


Date: Tue Jul 20 16:52:50 2021
Total elapsed time: 0.041 seconds.

tnom = 27
temp = 27
method = trap
totiter = 0
traniter = 0
tranpoints = 0
accept = 0
rejected = 0
matrix size = 7
fillins = 0
solver = Normal

