Circuit: * Z:\home\xenir\ltspice\Draft1.asc

Direct Newton iteration for .op point succeeded.

Date: Wed Jan 26 19:34:20 2022
Total elapsed time: 0.036 seconds.

tnom = 27
temp = 27
method = modified trap
totiter = 2091
traniter = 2088
tranpoints = 1045
accept = 1045
rejected = 0
matrix size = 7
fillins = 0
solver = Normal
Matrix Compiler1: 232 bytes object code size  0.1/0.1/[0.0]
Matrix Compiler2: off  [0.0]/0.1/0.1

