Circuit: * Z:\home\xenir\ltspice\Draft2.asc

Direct Newton iteration for .op point succeeded.

Date: Thu Jan 27 06:15:36 2022
Total elapsed time: 0.050 seconds.

tnom = 27
temp = 27
method = modified trap
totiter = 2091
traniter = 2088
tranpoints = 1045
accept = 1045
rejected = 0
matrix size = 14
fillins = 0
solver = Normal
Matrix Compiler1: 510 bytes object code size  0.1/0.1/[0.1]
Matrix Compiler2: 930 bytes object code size  0.1/0.1/[0.1]

