Circuit: * Z:\home\xenir\ltspice\Draft2.asc

Direct Newton iteration for .op point succeeded.

Date: Sun Jan 15 20:08:37 2023
Total elapsed time: 0.142 seconds.

tnom = 27
temp = 27
method = modified trap
totiter = 2828
traniter = 2825
tranpoints = 1252
accept = 1202
rejected = 50
matrix size = 18
fillins = 4
solver = Normal
Matrix Compiler1: 1.06 KB object code size  0.2/0.2/[0.2]
Matrix Compiler2: 1.53 KB object code size  0.2/0.2/[0.2]

