Circuit: * C:\Users\Caliphax\Documents\ltspice\filter.asc


Date: Sat Dec 11 13:42:36 2021
Total elapsed time: 0.057 seconds.

tnom = 27
temp = 27
method = trap
totiter = 0
traniter = 0
tranpoints = 0
accept = 0
rejected = 0
matrix size = 18
fillins = 0
solver = Normal

