Circuit: * C:\Users\Caliphax\Documents\ltspice\filter.asc


Date: Mon Oct 18 13:43:40 2021
Total elapsed time: 0.052 seconds.

tnom = 27
temp = 27
method = trap
totiter = 0
traniter = 0
tranpoints = 0
accept = 0
rejected = 0
matrix size = 3
fillins = 0
solver = Normal

