Circuit: * C:\Users\Caliphax\Documents\ltspice\Harmonic Trap Impedance.asc


Date: Mon Aug  9 13:34:32 2021
Total elapsed time: 0.027 seconds.

tnom = 27
temp = 27
method = trap
totiter = 0
traniter = 0
tranpoints = 0
accept = 0
rejected = 0
matrix size = 20
fillins = 4
solver = Normal

