Circuit: * C:\Users\Caliphax\Documents\ltspice\jfet switch.asc

Limiting fall time of source v5 to 1.95156e-19
Direct Newton iteration for .op point succeeded.

Date: Fri Mar  5 13:56:13 2021
Total elapsed time: 0.050 seconds.

tnom = 27
temp = 27
method = modified trap
totiter = 2267
traniter = 2262
tranpoints = 1099
accept = 1081
rejected = 18
matrix size = 21
fillins = 0
solver = Normal
Matrix Compiler1: 832 bytes object code size  0.3/0.2/[0.1]
Matrix Compiler2: 1.49 KB object code size  0.2/0.3/[0.2]

