Circuit: * Z:\home\xenir\git\ltspice\Low Pass.asc

.OP point found by inspection.

Date: Sun May 28 21:26:31 2023
Total elapsed time: 0.040 seconds.

tnom = 27
temp = 27
method = trap
totiter = 0
traniter = 0
tranpoints = 0
accept = 0
rejected = 0
matrix size = 20
fillins = 4
solver = Normal
Avg thread counts: 12.0/0.0/0.0/2.0
Matrix Compiler1:      51 opcodes
Matrix Compiler2:     112 opcodes
