Circuit: * Z:\home\xenir\git\ltspice\Low Pass.asc


Date: Tue Dec 27 12:13:34 2022
Total elapsed time: 0.094 seconds.

tnom = 27
temp = 27
method = trap
totiter = 0
traniter = 0
tranpoints = 0
accept = 0
rejected = 0
matrix size = 33
fillins = 6
solver = Normal

