Circuit: * Z:\home\xenir\git\ltspice\Low Pass.asc


Date: Sun Dec 25 09:21:36 2022
Total elapsed time: 0.097 seconds.

tnom = 27
temp = 27
method = trap
totiter = 0
traniter = 0
tranpoints = 0
accept = 0
rejected = 0
matrix size = 27
fillins = 5
solver = Normal

