Circuit: * C:\Users\Caliphax\Documents\ltspice\Low Pass.asc


Date: Mon Mar 20 11:59:24 2023
Total elapsed time: 0.029 seconds.

tnom = 27
temp = 27
method = trap
totiter = 0
traniter = 0
tranpoints = 0
accept = 0
rejected = 0
matrix size = 20
fillins = 4
solver = Normal

