Circuit: * Z:\home\xenir\ltspice\Low Pass.asc


Date: Sun Dec 25 09:40:45 2022
Total elapsed time: 0.111 seconds.

tnom = 27
temp = 27
method = trap
totiter = 0
traniter = 0
tranpoints = 0
accept = 0
rejected = 0
matrix size = 21
fillins = 4
solver = Normal

