Circuit: * Z:\home\xenir\ltspice\Low Pass.asc


<<<<<<< HEAD
Date: Sun Dec 25 09:40:45 2022
Total elapsed time: 0.111 seconds.
=======
Date: Sun Dec 25 09:21:36 2022
Total elapsed time: 0.097 seconds.
>>>>>>> 9a3eecf041d039b8713d232bd9bbd9ee4395014f

tnom = 27
temp = 27
method = trap
totiter = 0
traniter = 0
tranpoints = 0
accept = 0
rejected = 0
matrix size = 27
fillins = 5
solver = Normal

