Circuit: * C:\Users\Caliphax\Documents\ltspice\Low Pass.asc


Date: Sun Oct 17 19:56:44 2021
Total elapsed time: 0.035 seconds.

tnom = 27
temp = 27
method = trap
totiter = 0
traniter = 0
tranpoints = 0
accept = 0
rejected = 0
matrix size = 15
fillins = 3
solver = Normal

