Circuit: * Z:\home\xenir\ltspice\magnis preamp.asc

WARNING: Node N023 is floating.

Direct Newton iteration for .op point succeeded.

Date: Fri Jul 15 13:14:49 2022
Total elapsed time: 0.045 seconds.

tnom = 27
temp = 27
method = trap
totiter = 20
traniter = 0
tranpoints = 0
accept = 0
rejected = 0
matrix size = 64
fillins = 7
solver = Normal
Matrix Compiler1:     157 opcodes
Matrix Compiler2: 4.18 KB object code size
