Circuit: * Z:\home\xenir\ltspice\magnis preamp.asc


Date: Mon Nov 15 18:14:22 2021
Total elapsed time: 0.015 seconds.

tnom = 27
temp = 27
method = trap
totiter = 0
traniter = 0
tranpoints = 0
accept = 0
rejected = 0
matrix size = 20
fillins = 5
solver = Normal

