Circuit: * C:\Users\Caliphax\Documents\ltspice\paraset40 (1).asc

C3: both pins shorted together -- ignoring.
WARNING: Node NC_02 is floating.
WARNING: Node NC_03 is floating.

WARNING: Less than two connections to node NC_01.  This node is used by J1.
WARNING: Less than two connections to node NC_02.  This node is used by J1.
WARNING: Less than two connections to node NC_03.  This node is used by J1.
Instance "m:m4:2": Length shorter than recommended for a level 1 MOSFET.
Instance "m:m3:2": Length shorter than recommended for a level 1 MOSFET.
Instance "m:m2:2": Length shorter than recommended for a level 1 MOSFET.
Instance "m:m1:2": Length shorter than recommended for a level 1 MOSFET.
Direct Newton iteration for .op point succeeded.
Heightened Def Con from 0.00033265 to 0.00033265

Date: Fri Mar  5 12:42:06 2021
Total elapsed time: 11.139 seconds.

tnom = 27
temp = 27
method = modified trap
totiter = 837649
traniter = 837636
tranpoints = 304717
accept = 218431
rejected = 86287
matrix size = 42
fillins = 11
solver = Normal
Matrix Compiler1: 5.72 KB object code size  1.3/0.7/[0.4]
Matrix Compiler2: 4.41 KB object code size  0.4/0.6/[0.4]

