Circuit: * C:\Users\Caliphax\Documents\ltspice\Phaser PA Impedance.asc

Direct Newton iteration for .op point succeeded.

Date: Tue Jul 13 12:44:59 2021
Total elapsed time: 0.105 seconds.

tnom = 27
temp = 27
method = trap
totiter = 6
traniter = 0
tranpoints = 0
accept = 0
rejected = 0
matrix size = 81
fillins = 6
solver = Normal
Matrix Compiler1:     240 opcodes
Matrix Compiler2: 5.61 KB object code size
