Circuit: * C:\Users\Caliphax\Documents\ltspice\Phaser PA.asc

Direct Newton iteration for .op point succeeded.

Date: Wed Jul 14 16:46:46 2021
Total elapsed time: 0.855 seconds.

tnom = 27
temp = 27
method = modified trap
totiter = 86734
traniter = 86728
tranpoints = 25648
accept = 17871
rejected = 7777
matrix size = 68
fillins = 6
solver = Normal
Thread vector: 6.2/4.4[3] 5.5/3.4[3] 0.7/0.9[1] 0.3/0.5[1]  2592/500
Matrix Compiler1: 4.01 KB object code size  1.3/0.8/[0.5]
Matrix Compiler2: 4.99 KB object code size  0.5/0.9/[0.5]

