Circuit: * C:\Users\Caliphax\Documents\ltspice\Phaser Filter.asc

.OP point found by inspection.

Date: Wed Jun 30 13:25:41 2021
Total elapsed time: 0.029 seconds.

tnom = 27
temp = 27
method = modified trap
totiter = 2120
traniter = 2120
tranpoints = 1061
accept = 1058
rejected = 3
matrix size = 18
fillins = 0
solver = Normal
Matrix Compiler1:      38 opcodes  0.2/[0.1]/0.1
Matrix Compiler2: 1.15 KB object code size  0.1/0.2/[0.1]

