Circuit: * Z:\home\xenir\ltspice\pi-attenuator.asc


Date: Sun Jan 22 16:34:35 2023
Total elapsed time: 0.092 seconds.

tnom = 27
temp = 27
method = trap
totiter = 0
traniter = 0
tranpoints = 0
accept = 0
rejected = 0
matrix size = 2
fillins = 0
solver = Normal

