Circuit: * Z:\home\xenir\ltspice\pi-attenuator.asc

Direct Newton iteration for .op point succeeded.

Date: Thu Jan 05 19:18:56 2023
Total elapsed time: 0.121 seconds.

tnom = 27
temp = 27
method = modified trap
totiter = 2091
traniter = 2088
tranpoints = 1045
accept = 1045
rejected = 0
matrix size = 2
fillins = 0
solver = Normal
Matrix Compiler1: off  [0.1]/0.1/0.1
Matrix Compiler2: 116 bytes object code size  0.1/0.1/[0.1]

