Circuit: * C:\Users\Caliphax\Documents\ltspice\Pin Diodes.asc

WARNING: Node N026 is floating.

Direct Newton iteration for .op point succeeded.

Date: Sun Oct 18 15:50:17 2020
Total elapsed time: 3.169 seconds.

tnom = 27
temp = 27
method = modified trap
totiter = 536977
traniter = 536962
tranpoints = 188096
accept = 130488
rejected = 57608
matrix size = 55
fillins = 3
solver = Normal
Matrix Compiler1: 2.40 KB object code size  1.1/0.4/[0.3]
Matrix Compiler2: off  [0.3]/0.6/0.4

