Circuit: * C:\Users\Caliphax\Documents\ltspice\pushpull impedance.asc


Date: Wed Jul 28 14:38:08 2021
Total elapsed time: 0.024 seconds.

tnom = 27
temp = 27
method = trap
totiter = 0
traniter = 0
tranpoints = 0
accept = 0
rejected = 0
matrix size = 21
fillins = 0
solver = Normal

