Circuit: * Z:\home\xenir\ltspice\pushpull impedance.asc


Date: Thu Aug 25 17:03:31 2022
Total elapsed time: 0.021 seconds.

tnom = 27
temp = 27
method = trap
totiter = 0
traniter = 0
tranpoints = 0
accept = 0
rejected = 0
matrix size = 45
fillins = 6
solver = Normal

