Circuit: * C:\Users\Caliphax\Documents\ltspice\RF Combiner.asc

Direct Newton iteration for .op point succeeded.

Date: Mon Aug 16 14:15:38 2021
Total elapsed time: 0.028 seconds.

tnom = 27
temp = 27
method = modified trap
totiter = 2091
traniter = 2088
tranpoints = 1045
accept = 1045
rejected = 0
matrix size = 17
fillins = 2
solver = Normal
Matrix Compiler1: 1.19 KB object code size  0.5/0.2/[0.1]
Matrix Compiler2: 1.32 KB object code size  0.1/0.2/[0.1]

