Circuit: * Z:\home\xenir\ltspice\RF_AMP_2078_V306.asc

Warning: Multiple definitions of model "ztx849" Type: BJT
Warning: Multiple definitions of model "fzt849" Type: BJT
WARNING: Node NC_01 is floating.

WARNING: Less than two connections to node NC_01.  This node is used by C22.
Direct Newton iteration for .op point succeeded.

Date: Mon Oct 04 18:15:14 2021
Total elapsed time: 0.070 seconds.

tnom = 27
temp = 27
method = trap
totiter = 7
traniter = 0
tranpoints = 0
accept = 0
rejected = 0
matrix size = 138
fillins = 102
solver = Normal
Matrix Compiler1:     687 opcodes
Matrix Compiler2: 12.35 KB object code size
