Circuit: * C:\Users\Caliphax\Documents\ltspice\RF_AMP_2078_V306.asc

WARNING: Less than two connections to node NC_01.  This node is used by R24.
WARNING: Less than two connections to node N074.  This node is used by R34.
Direct Newton iteration for .op point succeeded.
Changing Tseed to 2.14844e-13
Changing Tseed to 2.14844e-15
Changing Tseed to 2.14844e-12

Date: Sat Sep 25 13:02:00 2021
Total elapsed time: 0.194 seconds.

tnom = 27
temp = 27
method = modified trap
totiter = 4796
traniter = 4787
tranpoints = 1386
accept = 1211
rejected = 172
matrix size = 138
fillins = 106
solver = Normal
Thread vector: 7.4/5.6[3] 6.7/4.9[3] 1.0/0.9[1] 0.8/1.3[1]  2592/500
Matrix Compiler1: 13.46 KB object code size  3.6/2.1/[1.1]
Matrix Compiler2: 12.65 KB object code size  1.5/2.1/[0.9]

