Circuit: * C:\Users\Caliphax\Documents\ltspice\RF_AMP_2078_V306.asc

Warning: Multiple definitions of model "ztx849" Type: BJT
Warning: Multiple definitions of model "fzt849" Type: BJT
Direct Newton iteration for .op point succeeded.
Changing Tseed to 2.14844e-13
Changing Tseed to 2.14844e-15
Changing Tseed to 2.14844e-12
Heightened Def Con from 2.14844e-12 to 6.00215e-09

Date: Sat Oct  2 19:39:45 2021
Total elapsed time: 0.196 seconds.

tnom = 27
temp = 27
method = modified trap
totiter = 4720
traniter = 4711
tranpoints = 1349
accept = 1176
rejected = 171
matrix size = 137
fillins = 109
solver = Normal
Thread vector: 8.9/5.7[3] 6.0/3.4[3] 1.1/0.8[3] 0.7/0.7[2]  2592/500
Matrix Compiler1: 13.65 KB object code size  3.9/2.3/[1.4]
Matrix Compiler2: 12.73 KB object code size  1.6/2.1/[1.0]

