Circuit: * C:\Users\Caliphax\Documents\ltspice\RF_AMP_2078_V306.asc

WARNING: Less than two connections to node NC_01.  This node is used by R24.
WARNING: Less than two connections to node N074.  This node is used by R34.
Direct Newton iteration for .op point succeeded.
Changing Tseed to 2.14844e-13
Changing Tseed to 2.14844e-15
Changing Tseed to 2.14844e-12

Date: Sat Sep 25 14:04:13 2021
Total elapsed time: 0.185 seconds.

tnom = 27
temp = 27
method = modified trap
totiter = 4796
traniter = 4787
tranpoints = 1386
accept = 1211
rejected = 172
matrix size = 138
fillins = 106
solver = Normal
Thread vector: 7.5/4.2[3] 5.3/4.3[3] 0.8/1.0[1] 0.7/1.3[1]  2592/500
Matrix Compiler1: 13.46 KB object code size  4.4/1.7/[1.0]
Matrix Compiler2: 12.65 KB object code size  1.5/1.6/[0.9]

