Circuit: * C:\Users\Caliphax\Documents\ltspice\RF_AMP_2078_V306.asc

Warning: Multiple definitions of model "ztx849" Type: BJT
Warning: Multiple definitions of model "fzt849" Type: BJT
L24: both pins shorted together -- ignoring.
Direct Newton iteration for .op point succeeded.
Changing Tseed to 2.14844e-13
Changing Tseed to 2.14844e-15
Changing Tseed to 2.14844e-12
Heightened Def Con from 2.14844e-12 to 6.00215e-09

Date: Sun Oct 10 19:26:33 2021
Total elapsed time: 0.193 seconds.

tnom = 27
temp = 27
method = modified trap
totiter = 5715
traniter = 5708
tranpoints = 1350
accept = 1177
rejected = 171
matrix size = 137
fillins = 109
solver = Normal
Thread vector: 7.3/4.7[3] 4.6/7.0[1] 0.6/7.2[1] 0.7/1.2[1]  2592/500
Matrix Compiler1: 13.65 KB object code size  4.7/1.8/[1.1]
Matrix Compiler2: 12.73 KB object code size  1.1/1.6/[0.8]

