Circuit: * Z:\home\xenir\ltspice\RF_AMP_2078_V306.asc

Warning: Multiple definitions of model "ztx849" Type: BJT
Warning: Multiple definitions of model "fzt849" Type: BJT
L24: both pins shorted together -- ignoring.
Direct Newton iteration for .op point succeeded.
Heightened Def Con from 8.59375e-014 to 6.00009e-009

Date: Sun Oct 10 17:46:11 2021
Total elapsed time: 0.115 seconds.

tnom = 27
temp = 27
method = modified trap
totiter = 4588
traniter = 4581
tranpoints = 1348
accept = 1178
rejected = 171
matrix size = 137
fillins = 109
solver = Normal
Thread vector: 4.8/5.1[1] 3.7/2.4[3] 0.4/1.2[1] 0.4/1.6[1]  2592/500
Matrix Compiler1: 13.65 KB object code size  2.1/1.2/[0.7]
Matrix Compiler2: 12.73 KB object code size  0.8/1.3/[0.5]

