Circuit: * C:\Users\Caliphax\Documents\ltspice\Side Tone.asc

Direct Newton iteration for .op point succeeded.

Date: Thu Feb 25 13:56:14 2021
Total elapsed time: 0.078 seconds.

tnom = 27
temp = 27
method = modified trap
totiter = 5275
traniter = 5269
tranpoints = 2112
accept = 1706
rejected = 406
matrix size = 12
fillins = 4
solver = Normal
Matrix Compiler1: 980 bytes object code size  0.3/0.1/[0.1]
Matrix Compiler2: 1.01 KB object code size  0.1/0.2/[0.1]

