Circuit: * C:\Users\Caliphax\Documents\ltspice\SSB Amp 7 MHz v2.asc

Limiting rise time of source v3 to 1e-09
Instance "m:m2:2": Length shorter than recommended for a level 1 MOSFET.
Direct Newton iteration for .op point succeeded.

Date: Fri Sep 10 14:50:49 2021
Total elapsed time: 9.271 seconds.

tnom = 27
temp = 27
method = modified trap
totiter = 620536
traniter = 620520
tranpoints = 151701
accept = 106825
rejected = 44876
matrix size = 104
fillins = 38
solver = Normal
Thread vector: 10.6/9.4[2] 4.8/3.9[2] 1.1/1.2[1] 0.5/0.7[1]  2592/500
Matrix Compiler1: 7.61 KB object code size  2.3/1.4/[0.8]
Matrix Compiler2: 8.85 KB object code size  1.2/1.7/[0.7]

