Circuit: * C:\Users\Caliphax\Documents\ltspice\SSB Amp v2.asc

Limiting rise time of source v3 to 1e-09
Instance "m:m2:2": Length shorter than recommended for a level 1 MOSFET.
Direct Newton iteration for .op point succeeded.

Date: Fri Aug  6 09:28:17 2021
Total elapsed time: 4.522 seconds.

tnom = 27
temp = 27
method = modified trap
totiter = 496396
traniter = 496380
tranpoints = 139744
accept = 95224
rejected = 44520
matrix size = 65
fillins = 30
solver = Normal
Matrix Compiler1: 4.98 KB object code size  1.3/0.7/[0.4]
Matrix Compiler2: 5.56 KB object code size  0.5/0.7/[0.4]

