Circuit: * C:\Users\Caliphax\Documents\ltspice\SSB Amp 7 MHz v2.asc

Limiting rise time of source v3 to 1e-09
Instance "m:m2:2": Length shorter than recommended for a level 1 MOSFET.
Direct Newton iteration for .op point succeeded.

Date: Fri Aug  6 14:29:22 2021
Total elapsed time: 4.006 seconds.

tnom = 27
temp = 27
method = modified trap
totiter = 293985
traniter = 293969
tranpoints = 78849
accept = 54552
rejected = 24297
matrix size = 103
fillins = 36
solver = Normal
Thread vector: 9.3/7.3[2] 4.6/3.7[2] 1.0/1.1[1] 0.6/1.0[1]  2592/500
Matrix Compiler1: 7.45 KB object code size  1.9/1.1/[0.8]
Matrix Compiler2: 8.73 KB object code size  0.8/1.3/[0.7]

