Circuit: * C:\Users\Caliphax\Documents\ltspice\SSB Amp 7 MHz v2.asc

Limiting rise time of source v3 to 1e-09
Instance "m:m2:2": Length shorter than recommended for a level 1 MOSFET.
Direct Newton iteration for .op point succeeded.

Date: Tue Aug 10 14:11:06 2021
Total elapsed time: 8.514 seconds.

tnom = 27
temp = 27
method = modified trap
totiter = 634866
traniter = 634850
tranpoints = 155193
accept = 107513
rejected = 47680
matrix size = 103
fillins = 36
solver = Normal
Thread vector: 9.7/7.2[2] 4.9/4.0[2] 1.1/1.1[1] 0.5/1.0[1]  2592/500
Matrix Compiler1: 7.44 KB object code size  2.2/1.1/[0.7]
Matrix Compiler2: 8.74 KB object code size  0.8/1.2/[0.8]

