Circuit: * C:\Users\Caliphax\Documents\ltspice\SSB Amp 7 MHz v2.asc

Limiting rise time of source v3 to 1e-09
Instance "m:m2:2": Length shorter than recommended for a level 1 MOSFET.
Direct Newton iteration for .op point succeeded.

Date: Fri Aug  6 21:04:27 2021
Total elapsed time: 4.615 seconds.

tnom = 27
temp = 27
method = modified trap
totiter = 274313
traniter = 274297
tranpoints = 72892
accept = 49528
rejected = 23364
matrix size = 104
fillins = 52
solver = Normal
Thread vector: 9.4/7.0[2] 4.7/5.9[1] 1.0/1.1[1] 0.6/1.0[1]  2592/500
Matrix Compiler1: 8.15 KB object code size  2.3/1.1/[0.7]
Matrix Compiler2: 9.09 KB object code size  0.8/1.3/[0.8]

