Circuit: * C:\Users\Caliphax\Documents\ltspice\SSB Amp 7 MHz v2 Impedance.asc

Warning: Multiple definitions of model "zener_12v" Type: Diode
Limiting rise time of source v3 to 1e-09
Instance "m:m2:2": Length shorter than recommended for a level 1 MOSFET.
Direct Newton iteration for .op point succeeded.

Date: Mon Aug  9 13:49:23 2021
Total elapsed time: 0.497 seconds.

tnom = 27
temp = 27
method = trap
totiter = 16
traniter = 0
tranpoints = 0
accept = 0
rejected = 0
matrix size = 99
fillins = 32
solver = Normal
Matrix Compiler1:     391 opcodes
Matrix Compiler2: 8.03 KB object code size
