Circuit: * Z:\home\xenir\ltspice\Tayloe-mix-amp.asc

WARNING: Less than two connections to node N021.  This node is used by V6.
WARNING: Less than two connections to node NC_01.  This node is used by L6.
Direct Newton iteration for .op point succeeded.

Date: Thu Dec 29 18:36:52 2022
Total elapsed time: 0.172 seconds.

tnom = 27
temp = 27
method = trap
totiter = 4
traniter = 0
tranpoints = 0
accept = 0
rejected = 0
matrix size = 64
fillins = 9
solver = Normal
Matrix Compiler1:     221 opcodes
Matrix Compiler2: 4.83 KB object code size
