Circuit: * Z:\home\xenir\ltspice\Tayloe-mix-amp.asc

WARNING: Less than two connections to node N022.  This node is used by V6.
Direct Newton iteration for .op point succeeded.

Date: Fri Dec 16 14:08:28 2022
Total elapsed time: 0.160 seconds.

tnom = 27
temp = 27
method = modified trap
totiter = 2210
traniter = 2206
tranpoints = 1072
accept = 1067
rejected = 5
matrix size = 52
fillins = 12
solver = Normal
Matrix Compiler1: 3.26 KB object code size  0.5/0.4/[0.2]
Matrix Compiler2: 4.12 KB object code size  0.3/0.4/[0.2]

