Circuit: * Z:\home\xenir\ltspice\Tayloe-mix-amp.asc

WARNING: Less than two connections to node N001.  This node is used by V3.
WARNING: Less than two connections to node N021.  This node is used by V6.
WARNING: Less than two connections to node NC_01.  This node is used by L6.
Direct Newton iteration for .op point succeeded.

Date: Sun Jan 01 12:51:00 2023
Total elapsed time: 0.130 seconds.

tnom = 27
temp = 27
method = modified trap
totiter = 2145
traniter = 2141
tranpoints = 1059
accept = 1057
rejected = 2
matrix size = 65
fillins = 6
solver = Normal
Matrix Compiler1: 3.90 KB object code size  0.6/0.4/[0.3]
Matrix Compiler2: 5.02 KB object code size  0.3/0.5/[0.2]

