Circuit: * Z:\home\xenir\ltspice\Tayloe Switch.asc


Date: Mon Jan 16 14:43:57 2023
Total elapsed time: 0.122 seconds.

tnom = 27
temp = 27
method = trap
totiter = 0
traniter = 0
tranpoints = 0
accept = 0
rejected = 0
matrix size = 10
fillins = 0
solver = Normal

