Circuit: * Z:\home\xenir\ltspice\Tayloe-mix-amp.asc

WARNING: Less than two connections to node N021.  This node is used by V6.
WARNING: Less than two connections to node NC_01.  This node is used by L6.
Direct Newton iteration for .op point succeeded.

Date: Sun Dec 18 08:22:26 2022
Total elapsed time: 0.116 seconds.

tnom = 27
temp = 27
method = modified trap
totiter = 2341
traniter = 2337
tranpoints = 1103
accept = 1090
rejected = 13
matrix size = 50
fillins = 4
solver = Normal
Matrix Compiler1: 2.71 KB object code size  0.5/0.3/[0.2]
Matrix Compiler2: 3.78 KB object code size  0.3/0.4/[0.2]

