Circuit: * Z:\home\xenir\ltspice\Tayloe Switch.asc


Date: Tue Jan 17 07:17:02 2023
Total elapsed time: 0.156 seconds.

tnom = 27
temp = 27
method = trap
totiter = 0
traniter = 0
tranpoints = 0
accept = 0
rejected = 0
matrix size = 10
fillins = 0
solver = Normal

