Circuit: * C:\Users\Caliphax\Documents\ltspice\Transmit Switch Ensemble.asc

WARNING: Node N008 is floating.

WARNING: Less than two connections to node N005.  This node is used by Q2.
WARNING: Less than two connections to node NC_01.  This node is used by S1.
Instance "m:m3:2": Length shorter than recommended for a level 1 MOSFET.
Instance "m:m2:2": Length shorter than recommended for a level 1 MOSFET.
Direct Newton iteration for .op point succeeded.

Date: Mon Sep 28 15:58:39 2020
Total elapsed time: 6.015 seconds.

tnom = 27
temp = 27
method = modified trap
totiter = 415803
traniter = 415782
tranpoints = 151709
accept = 103692
rejected = 48017
matrix size = 78
fillins = 45
solver = Normal
Matrix Compiler1: 8.25 KB object code size  2.1/1.1/[0.6]
Matrix Compiler2: 7.58 KB object code size  0.8/1.0/[0.7]

