Circuit: * C:\users\xenir\My Documents\ltspice\Transmit Switch Ensemble.asc

WARNING: Node N008 is floating.

WARNING: Less than two connections to node N005.  This node is used by Q2.
WARNING: Less than two connections to node NC_01.  This node is used by S1.
Instance "m:m3:2": Length shorter than recommended for a level 1 MOSFET.
Instance "m:m2:2": Length shorter than recommended for a level 1 MOSFET.
Direct Newton iteration for .op point succeeded.

Date: Sun Sep 27 10:51:37 2020
Total elapsed time: 1.424 seconds.

tnom = 27
temp = 27
method = modified trap
totiter = 166887
traniter = 166866
tranpoints = 61302
accept = 42638
rejected = 18664
matrix size = 73
fillins = 44
solver = Normal
Matrix Compiler1: 7.96 KB object code size  1.4/0.8/[0.4]
Matrix Compiler2: 7.21 KB object code size  0.6/0.9/[0.5]

