Circuit: * C:\Users\Caliphax\Documents\ltspice\Transistor Impedance.asc

Direct Newton iteration for .op point succeeded.

Date: Tue Jul 27 16:09:14 2021
Total elapsed time: 0.057 seconds.

tnom = 27
temp = 27
method = modified trap
totiter = 5239
traniter = 5233
tranpoints = 2075
accept = 1547
rejected = 528
matrix size = 25
fillins = 3
solver = Normal
Matrix Compiler1: 1.46 KB object code size  0.6/0.2/[0.2]
Matrix Compiler2: 1.93 KB object code size  0.2/0.3/[0.2]

