Circuit: * C:\Users\Caliphax\Documents\ltspice\Transmit Switch Ensemble.asc

WARNING: Node N008 is floating.

WARNING: Less than two connections to node N005.  This node is used by Q2.
WARNING: Less than two connections to node NC_01.  This node is used by S1.
Instance "m:m3:2": Length shorter than recommended for a level 1 MOSFET.
Instance "m:m2:2": Length shorter than recommended for a level 1 MOSFET.
Direct Newton iteration for .op point succeeded.

Date: Sat Oct  3 14:59:36 2020
Total elapsed time: 5.682 seconds.

tnom = 27
temp = 27
method = modified trap
totiter = 415141
traniter = 415120
tranpoints = 151562
accept = 103623
rejected = 47939
matrix size = 80
fillins = 45
solver = Normal
Matrix Compiler1: 8.30 KB object code size  2.3/1.0/[0.7]
Matrix Compiler2: 7.71 KB object code size  0.7/1.1/[0.6]

