Circuit: * C:\Users\Caliphax\Documents\ltspice\Transmit Switch Ensemble.asc

WARNING: Node N008 is floating.

WARNING: Less than two connections to node N005.  This node is used by Q2.
WARNING: Less than two connections to node NC_01.  This node is used by S1.
Instance "m:m3:2": Length shorter than recommended for a level 1 MOSFET.
Instance "m:m2:2": Length shorter than recommended for a level 1 MOSFET.
Direct Newton iteration for .op point succeeded.

Date: Thu Feb 25 12:48:06 2021
Total elapsed time: 9.820 seconds.

tnom = 27
temp = 27
method = modified trap
totiter = 682697
traniter = 682676
tranpoints = 273244
accept = 185379
rejected = 87865
matrix size = 83
fillins = 45
solver = Normal
Matrix Compiler1: 8.44 KB object code size  2.6/1.1/[0.7]
Matrix Compiler2: 7.89 KB object code size  0.8/1.1/[0.8]

